data_image0
_cell_length_a       15
_cell_length_b       15
_cell_length_c       15
_cell_angle_alpha    90
_cell_angle_beta     90
_cell_angle_gamma    90

_symmetry_space_group_name_H-M    "P 1"
_symmetry_int_tables_number       1

loop_
  _symmetry_equiv_pos_as_xyz
  'x, y, z'

loop_
  _atom_site_label
  _atom_site_occupancy
  _atom_site_fract_x
  _atom_site_fract_y
  _atom_site_fract_z
  _atom_site_thermal_displace_type
  _atom_site_B_iso_or_equiv
  _atom_site_type_symbol
  Na1      1.0000 0.16667  0.00000  0.16667  Biso   1.000  Na
  Na2      1.0000 0.00000  0.16667  0.16667  Biso   1.000  Na
  N1       1.0000 0.16667  0.16667  0.16667  Biso   1.000  N
  H1       1.0000 0.22826  0.16667  0.14489  Biso   1.000  H
  H2       1.0000 0.13587  0.22001  0.14489  Biso   1.000  H
  B1       1.0000 0.00000  0.00000  0.00000  Biso   1.000  B
  H3       1.0000 0.07354  0.00000  0.30733  Biso   1.000  H
  H4       1.0000 0.29656  0.06369  0.30733  Biso   1.000  H
  H5       1.0000 0.29656  0.26965  0.30733  Biso   1.000  H
  H6       1.0000 0.00000  0.00000  0.07800  Biso   1.000  H
  Na3      1.0000 0.16667  0.00000  0.50000  Biso   1.000  Na
  Na4      1.0000 0.00000  0.16667  0.50000  Biso   1.000  Na
  N2       1.0000 0.16667  0.16667  0.50000  Biso   1.000  N
  H7       1.0000 0.22826  0.16667  0.47822  Biso   1.000  H
  H8       1.0000 0.13587  0.22001  0.47822  Biso   1.000  H
  B2       1.0000 0.00000  0.00000  0.33333  Biso   1.000  B
  H9       1.0000 0.07354  0.00000  0.64067  Biso   1.000  H
  H10      1.0000 0.29656  0.06369  0.64067  Biso   1.000  H
  H11      1.0000 0.29656  0.26965  0.64067  Biso   1.000  H
  H12      1.0000 0.00000  0.00000  0.41133  Biso   1.000  H
  Na5      1.0000 0.16667  0.00000  0.83333  Biso   1.000  Na
  Na6      1.0000 0.00000  0.16667  0.83333  Biso   1.000  Na
  N3       1.0000 0.16667  0.16667  0.83333  Biso   1.000  N
  H13      1.0000 0.22826  0.16667  0.81156  Biso   1.000  H
  H14      1.0000 0.13587  0.22001  0.81156  Biso   1.000  H
  B3       1.0000 0.00000  0.00000  0.66667  Biso   1.000  B
  H15      1.0000 0.07354  0.00000  0.97400  Biso   1.000  H
  H16      1.0000 0.29656  0.06369  0.97400  Biso   1.000  H
  H17      1.0000 0.29656  0.26965  0.97400  Biso   1.000  H
  H18      1.0000 0.00000  0.00000  0.74467  Biso   1.000  H
  Na7      1.0000 0.16667  0.33333  0.16667  Biso   1.000  Na
  Na8      1.0000 0.00000  0.50000  0.16667  Biso   1.000  Na
  N4       1.0000 0.16667  0.50000  0.16667  Biso   1.000  N
  H19      1.0000 0.22826  0.50000  0.14489  Biso   1.000  H
  H20      1.0000 0.13587  0.55334  0.14489  Biso   1.000  H
  B4       1.0000 0.00000  0.33333  0.00000  Biso   1.000  B
  H21      1.0000 0.07354  0.33333  0.30733  Biso   1.000  H
  H22      1.0000 0.29656  0.39702  0.30733  Biso   1.000  H
  H23      1.0000 0.29656  0.60298  0.30733  Biso   1.000  H
  H24      1.0000 0.00000  0.33333  0.07800  Biso   1.000  H
  Na9      1.0000 0.16667  0.33333  0.50000  Biso   1.000  Na
  Na10     1.0000 0.00000  0.50000  0.50000  Biso   1.000  Na
  N5       1.0000 0.16667  0.50000  0.50000  Biso   1.000  N
  H25      1.0000 0.22826  0.50000  0.47822  Biso   1.000  H
  H26      1.0000 0.13587  0.55334  0.47822  Biso   1.000  H
  B5       1.0000 0.00000  0.33333  0.33333  Biso   1.000  B
  H27      1.0000 0.07354  0.33333  0.64067  Biso   1.000  H
  H28      1.0000 0.29656  0.39702  0.64067  Biso   1.000  H
  H29      1.0000 0.29656  0.60298  0.64067  Biso   1.000  H
  H30      1.0000 0.00000  0.33333  0.41133  Biso   1.000  H
  Na11     1.0000 0.16667  0.33333  0.83333  Biso   1.000  Na
  Na12     1.0000 0.00000  0.50000  0.83333  Biso   1.000  Na
  N6       1.0000 0.16667  0.50000  0.83333  Biso   1.000  N
  H31      1.0000 0.22826  0.50000  0.81156  Biso   1.000  H
  H32      1.0000 0.13587  0.55334  0.81156  Biso   1.000  H
  B6       1.0000 0.00000  0.33333  0.66667  Biso   1.000  B
  H33      1.0000 0.07354  0.33333  0.97400  Biso   1.000  H
  H34      1.0000 0.29656  0.39702  0.97400  Biso   1.000  H
  H35      1.0000 0.29656  0.60298  0.97400  Biso   1.000  H
  H36      1.0000 0.00000  0.33333  0.74467  Biso   1.000  H
  Na13     1.0000 0.16667  0.66667  0.16667  Biso   1.000  Na
  Na14     1.0000 0.00000  0.83333  0.16667  Biso   1.000  Na
  N7       1.0000 0.16667  0.83333  0.16667  Biso   1.000  N
  H37      1.0000 0.22826  0.83333  0.14489  Biso   1.000  H
  H38      1.0000 0.13587  0.88668  0.14489  Biso   1.000  H
  B7       1.0000 0.00000  0.66667  0.00000  Biso   1.000  B
  H39      1.0000 0.07354  0.66667  0.30733  Biso   1.000  H
  H40      1.0000 0.29656  0.73035  0.30733  Biso   1.000  H
  H41      1.0000 0.29656  0.93631  0.30733  Biso   1.000  H
  H42      1.0000 0.00000  0.66667  0.07800  Biso   1.000  H
  Na15     1.0000 0.16667  0.66667  0.50000  Biso   1.000  Na
  Na16     1.0000 0.00000  0.83333  0.50000  Biso   1.000  Na
  N8       1.0000 0.16667  0.83333  0.50000  Biso   1.000  N
  H43      1.0000 0.22826  0.83333  0.47822  Biso   1.000  H
  H44      1.0000 0.13587  0.88668  0.47822  Biso   1.000  H
  B8       1.0000 0.00000  0.66667  0.33333  Biso   1.000  B
  H45      1.0000 0.07354  0.66667  0.64067  Biso   1.000  H
  H46      1.0000 0.29656  0.73035  0.64067  Biso   1.000  H
  H47      1.0000 0.29656  0.93631  0.64067  Biso   1.000  H
  H48      1.0000 0.00000  0.66667  0.41133  Biso   1.000  H
  Na17     1.0000 0.16667  0.66667  0.83333  Biso   1.000  Na
  Na18     1.0000 0.00000  0.83333  0.83333  Biso   1.000  Na
  N9       1.0000 0.16667  0.83333  0.83333  Biso   1.000  N
  H49      1.0000 0.22826  0.83333  0.81156  Biso   1.000  H
  H50      1.0000 0.13587  0.88668  0.81156  Biso   1.000  H
  B9       1.0000 0.00000  0.66667  0.66667  Biso   1.000  B
  H51      1.0000 0.07354  0.66667  0.97400  Biso   1.000  H
  H52      1.0000 0.29656  0.73035  0.97400  Biso   1.000  H
  H53      1.0000 0.29656  0.93631  0.97400  Biso   1.000  H
  H54      1.0000 0.00000  0.66667  0.74467  Biso   1.000  H
  Na19     1.0000 0.50000  0.00000  0.16667  Biso   1.000  Na
  Na20     1.0000 0.33333  0.16667  0.16667  Biso   1.000  Na
  N10      1.0000 0.50000  0.16667  0.16667  Biso   1.000  N
  H55      1.0000 0.56160  0.16667  0.14489  Biso   1.000  H
  H56      1.0000 0.46920  0.22001  0.14489  Biso   1.000  H
  B10      1.0000 0.33333  0.00000  0.00000  Biso   1.000  B
  H57      1.0000 0.40687  0.00000  0.30733  Biso   1.000  H
  H58      1.0000 0.62990  0.06369  0.30733  Biso   1.000  H
  H59      1.0000 0.62990  0.26965  0.30733  Biso   1.000  H
  H60      1.0000 0.33333  0.00000  0.07800  Biso   1.000  H
  Na21     1.0000 0.50000  0.00000  0.50000  Biso   1.000  Na
  Na22     1.0000 0.33333  0.16667  0.50000  Biso   1.000  Na
  N11      1.0000 0.50000  0.16667  0.50000  Biso   1.000  N
  H61      1.0000 0.56160  0.16667  0.47822  Biso   1.000  H
  H62      1.0000 0.46920  0.22001  0.47822  Biso   1.000  H
  B11      1.0000 0.33333  0.00000  0.33333  Biso   1.000  B
  H63      1.0000 0.40687  0.00000  0.64067  Biso   1.000  H
  H64      1.0000 0.62990  0.06369  0.64067  Biso   1.000  H
  H65      1.0000 0.62990  0.26965  0.64067  Biso   1.000  H
  H66      1.0000 0.33333  0.00000  0.41133  Biso   1.000  H
  Na23     1.0000 0.50000  0.00000  0.83333  Biso   1.000  Na
  Na24     1.0000 0.33333  0.16667  0.83333  Biso   1.000  Na
  N12      1.0000 0.50000  0.16667  0.83333  Biso   1.000  N
  H67      1.0000 0.56160  0.16667  0.81156  Biso   1.000  H
  H68      1.0000 0.46920  0.22001  0.81156  Biso   1.000  H
  B12      1.0000 0.33333  0.00000  0.66667  Biso   1.000  B
  H69      1.0000 0.40687  0.00000  0.97400  Biso   1.000  H
  H70      1.0000 0.62990  0.06369  0.97400  Biso   1.000  H
  H71      1.0000 0.62990  0.26965  0.97400  Biso   1.000  H
  H72      1.0000 0.33333  0.00000  0.74467  Biso   1.000  H
  Na25     1.0000 0.50000  0.33333  0.16667  Biso   1.000  Na
  Na26     1.0000 0.33333  0.50000  0.16667  Biso   1.000  Na
  N13      1.0000 0.50000  0.50000  0.16667  Biso   1.000  N
  H73      1.0000 0.56160  0.50000  0.14489  Biso   1.000  H
  H74      1.0000 0.46920  0.55334  0.14489  Biso   1.000  H
  B13      1.0000 0.33333  0.33333  0.00000  Biso   1.000  B
  H75      1.0000 0.40687  0.33333  0.30733  Biso   1.000  H
  H76      1.0000 0.62990  0.39702  0.30733  Biso   1.000  H
  H77      1.0000 0.62990  0.60298  0.30733  Biso   1.000  H
  H78      1.0000 0.33333  0.33333  0.07800  Biso   1.000  H
  Na27     1.0000 0.50000  0.33333  0.50000  Biso   1.000  Na
  Na28     1.0000 0.33333  0.50000  0.50000  Biso   1.000  Na
  N14      1.0000 0.50000  0.50000  0.50000  Biso   1.000  N
  H79      1.0000 0.56160  0.50000  0.47822  Biso   1.000  H
  H80      1.0000 0.46920  0.55334  0.47822  Biso   1.000  H
  B14      1.0000 0.33333  0.33333  0.33333  Biso   1.000  B
  H81      1.0000 0.40687  0.33333  0.64067  Biso   1.000  H
  H82      1.0000 0.62990  0.39702  0.64067  Biso   1.000  H
  H83      1.0000 0.62990  0.60298  0.64067  Biso   1.000  H
  H84      1.0000 0.33333  0.33333  0.41133  Biso   1.000  H
  Na29     1.0000 0.50000  0.33333  0.83333  Biso   1.000  Na
  Na30     1.0000 0.33333  0.50000  0.83333  Biso   1.000  Na
  N15      1.0000 0.50000  0.50000  0.83333  Biso   1.000  N
  H85      1.0000 0.56160  0.50000  0.81156  Biso   1.000  H
  H86      1.0000 0.46920  0.55334  0.81156  Biso   1.000  H
  B15      1.0000 0.33333  0.33333  0.66667  Biso   1.000  B
  H87      1.0000 0.40687  0.33333  0.97400  Biso   1.000  H
  H88      1.0000 0.62990  0.39702  0.97400  Biso   1.000  H
  H89      1.0000 0.62990  0.60298  0.97400  Biso   1.000  H
  H90      1.0000 0.33333  0.33333  0.74467  Biso   1.000  H
  Na31     1.0000 0.50000  0.66667  0.16667  Biso   1.000  Na
  Na32     1.0000 0.33333  0.83333  0.16667  Biso   1.000  Na
  N16      1.0000 0.50000  0.83333  0.16667  Biso   1.000  N
  H91      1.0000 0.56160  0.83333  0.14489  Biso   1.000  H
  H92      1.0000 0.46920  0.88668  0.14489  Biso   1.000  H
  B16      1.0000 0.33333  0.66667  0.00000  Biso   1.000  B
  H93      1.0000 0.40687  0.66667  0.30733  Biso   1.000  H
  H94      1.0000 0.62990  0.73035  0.30733  Biso   1.000  H
  H95      1.0000 0.62990  0.93631  0.30733  Biso   1.000  H
  H96      1.0000 0.33333  0.66667  0.07800  Biso   1.000  H
  Na33     1.0000 0.50000  0.66667  0.50000  Biso   1.000  Na
  Na34     1.0000 0.33333  0.83333  0.50000  Biso   1.000  Na
  N17      1.0000 0.50000  0.83333  0.50000  Biso   1.000  N
  H97      1.0000 0.56160  0.83333  0.47822  Biso   1.000  H
  H98      1.0000 0.46920  0.88668  0.47822  Biso   1.000  H
  B17      1.0000 0.33333  0.66667  0.33333  Biso   1.000  B
  H99      1.0000 0.40687  0.66667  0.64067  Biso   1.000  H
  H100     1.0000 0.62990  0.73035  0.64067  Biso   1.000  H
  H101     1.0000 0.62990  0.93631  0.64067  Biso   1.000  H
  H102     1.0000 0.33333  0.66667  0.41133  Biso   1.000  H
  Na35     1.0000 0.50000  0.66667  0.83333  Biso   1.000  Na
  Na36     1.0000 0.33333  0.83333  0.83333  Biso   1.000  Na
  N18      1.0000 0.50000  0.83333  0.83333  Biso   1.000  N
  H103     1.0000 0.56160  0.83333  0.81156  Biso   1.000  H
  H104     1.0000 0.46920  0.88668  0.81156  Biso   1.000  H
  B18      1.0000 0.33333  0.66667  0.66667  Biso   1.000  B
  H105     1.0000 0.40687  0.66667  0.97400  Biso   1.000  H
  H106     1.0000 0.62990  0.73035  0.97400  Biso   1.000  H
  H107     1.0000 0.62990  0.93631  0.97400  Biso   1.000  H
  H108     1.0000 0.33333  0.66667  0.74467  Biso   1.000  H
  Na37     1.0000 0.83333  0.00000  0.16667  Biso   1.000  Na
  Na38     1.0000 0.66667  0.16667  0.16667  Biso   1.000  Na
  N19      1.0000 0.83333  0.16667  0.16667  Biso   1.000  N
  H109     1.0000 0.89493  0.16667  0.14489  Biso   1.000  H
  H110     1.0000 0.80253  0.22001  0.14489  Biso   1.000  H
  B19      1.0000 0.66667  0.00000  0.00000  Biso   1.000  B
  H111     1.0000 0.74021  0.00000  0.30733  Biso   1.000  H
  H112     1.0000 0.96323  0.06369  0.30733  Biso   1.000  H
  H113     1.0000 0.96323  0.26965  0.30733  Biso   1.000  H
  H114     1.0000 0.66667  0.00000  0.07800  Biso   1.000  H
  Na39     1.0000 0.83333  0.00000  0.50000  Biso   1.000  Na
  Na40     1.0000 0.66667  0.16667  0.50000  Biso   1.000  Na
  N20      1.0000 0.83333  0.16667  0.50000  Biso   1.000  N
  H115     1.0000 0.89493  0.16667  0.47822  Biso   1.000  H
  H116     1.0000 0.80253  0.22001  0.47822  Biso   1.000  H
  B20      1.0000 0.66667  0.00000  0.33333  Biso   1.000  B
  H117     1.0000 0.74021  0.00000  0.64067  Biso   1.000  H
  H118     1.0000 0.96323  0.06369  0.64067  Biso   1.000  H
  H119     1.0000 0.96323  0.26965  0.64067  Biso   1.000  H
  H120     1.0000 0.66667  0.00000  0.41133  Biso   1.000  H
  Na41     1.0000 0.83333  0.00000  0.83333  Biso   1.000  Na
  Na42     1.0000 0.66667  0.16667  0.83333  Biso   1.000  Na
  N21      1.0000 0.83333  0.16667  0.83333  Biso   1.000  N
  H121     1.0000 0.89493  0.16667  0.81156  Biso   1.000  H
  H122     1.0000 0.80253  0.22001  0.81156  Biso   1.000  H
  B21      1.0000 0.66667  0.00000  0.66667  Biso   1.000  B
  H123     1.0000 0.74021  0.00000  0.97400  Biso   1.000  H
  H124     1.0000 0.96323  0.06369  0.97400  Biso   1.000  H
  H125     1.0000 0.96323  0.26965  0.97400  Biso   1.000  H
  H126     1.0000 0.66667  0.00000  0.74467  Biso   1.000  H
  Na43     1.0000 0.83333  0.33333  0.16667  Biso   1.000  Na
  Na44     1.0000 0.66667  0.50000  0.16667  Biso   1.000  Na
  N22      1.0000 0.83333  0.50000  0.16667  Biso   1.000  N
  H127     1.0000 0.89493  0.50000  0.14489  Biso   1.000  H
  H128     1.0000 0.80253  0.55334  0.14489  Biso   1.000  H
  B22      1.0000 0.66667  0.33333  0.00000  Biso   1.000  B
  H129     1.0000 0.74021  0.33333  0.30733  Biso   1.000  H
  H130     1.0000 0.96323  0.39702  0.30733  Biso   1.000  H
  H131     1.0000 0.96323  0.60298  0.30733  Biso   1.000  H
  H132     1.0000 0.66667  0.33333  0.07800  Biso   1.000  H
  Na45     1.0000 0.83333  0.33333  0.50000  Biso   1.000  Na
  Na46     1.0000 0.66667  0.50000  0.50000  Biso   1.000  Na
  N23      1.0000 0.83333  0.50000  0.50000  Biso   1.000  N
  H133     1.0000 0.89493  0.50000  0.47822  Biso   1.000  H
  H134     1.0000 0.80253  0.55334  0.47822  Biso   1.000  H
  B23      1.0000 0.66667  0.33333  0.33333  Biso   1.000  B
  H135     1.0000 0.74021  0.33333  0.64067  Biso   1.000  H
  H136     1.0000 0.96323  0.39702  0.64067  Biso   1.000  H
  H137     1.0000 0.96323  0.60298  0.64067  Biso   1.000  H
  H138     1.0000 0.66667  0.33333  0.41133  Biso   1.000  H
  Na47     1.0000 0.83333  0.33333  0.83333  Biso   1.000  Na
  Na48     1.0000 0.66667  0.50000  0.83333  Biso   1.000  Na
  N24      1.0000 0.83333  0.50000  0.83333  Biso   1.000  N
  H139     1.0000 0.89493  0.50000  0.81156  Biso   1.000  H
  H140     1.0000 0.80253  0.55334  0.81156  Biso   1.000  H
  B24      1.0000 0.66667  0.33333  0.66667  Biso   1.000  B
  H141     1.0000 0.74021  0.33333  0.97400  Biso   1.000  H
  H142     1.0000 0.96323  0.39702  0.97400  Biso   1.000  H
  H143     1.0000 0.96323  0.60298  0.97400  Biso   1.000  H
  H144     1.0000 0.66667  0.33333  0.74467  Biso   1.000  H
  Na49     1.0000 0.83333  0.66667  0.16667  Biso   1.000  Na
  Na50     1.0000 0.66667  0.83333  0.16667  Biso   1.000  Na
  N25      1.0000 0.83333  0.83333  0.16667  Biso   1.000  N
  H145     1.0000 0.89493  0.83333  0.14489  Biso   1.000  H
  H146     1.0000 0.80253  0.88668  0.14489  Biso   1.000  H
  B25      1.0000 0.66667  0.66667  0.00000  Biso   1.000  B
  H147     1.0000 0.74021  0.66667  0.30733  Biso   1.000  H
  H148     1.0000 0.96323  0.73035  0.30733  Biso   1.000  H
  H149     1.0000 0.96323  0.93631  0.30733  Biso   1.000  H
  H150     1.0000 0.66667  0.66667  0.07800  Biso   1.000  H
  Na51     1.0000 0.83333  0.66667  0.50000  Biso   1.000  Na
  Na52     1.0000 0.66667  0.83333  0.50000  Biso   1.000  Na
  N26      1.0000 0.83333  0.83333  0.50000  Biso   1.000  N
  H151     1.0000 0.89493  0.83333  0.47822  Biso   1.000  H
  H152     1.0000 0.80253  0.88668  0.47822  Biso   1.000  H
  B26      1.0000 0.66667  0.66667  0.33333  Biso   1.000  B
  H153     1.0000 0.74021  0.66667  0.64067  Biso   1.000  H
  H154     1.0000 0.96323  0.73035  0.64067  Biso   1.000  H
  H155     1.0000 0.96323  0.93631  0.64067  Biso   1.000  H
  H156     1.0000 0.66667  0.66667  0.41133  Biso   1.000  H
  Na53     1.0000 0.83333  0.66667  0.83333  Biso   1.000  Na
  Na54     1.0000 0.66667  0.83333  0.83333  Biso   1.000  Na
  N27      1.0000 0.83333  0.83333  0.83333  Biso   1.000  N
  H157     1.0000 0.89493  0.83333  0.81156  Biso   1.000  H
  H158     1.0000 0.80253  0.88668  0.81156  Biso   1.000  H
  B27      1.0000 0.66667  0.66667  0.66667  Biso   1.000  B
  H159     1.0000 0.74021  0.66667  0.97400  Biso   1.000  H
  H160     1.0000 0.96323  0.73035  0.97400  Biso   1.000  H
  H161     1.0000 0.96323  0.93631  0.97400  Biso   1.000  H
  H162     1.0000 0.66667  0.66667  0.74467  Biso   1.000  H
