data_image0
_cell_length_a       4.38262
_cell_length_b       4.40127
_cell_length_c       4.13081
_cell_angle_alpha    89.7523
_cell_angle_beta     92.8958
_cell_angle_gamma    88.4162

_symmetry_space_group_name_H-M    "P 1"
_symmetry_int_tables_number       1

loop_
  _symmetry_equiv_pos_as_xyz
  'x, y, z'

loop_
  _atom_site_label
  _atom_site_occupancy
  _atom_site_fract_x
  _atom_site_fract_y
  _atom_site_fract_z
  _atom_site_thermal_displace_type
  _atom_site_B_iso_or_equiv
  _atom_site_type_symbol
  Na1      1.0000 0.50000  0.00000  0.50000  Biso   1.000  Na
  Na2      1.0000 0.00000  0.50000  0.50000  Biso   1.000  Na
  N1       1.0000 0.48329  0.50188  0.31693  Biso   1.000  N
  H1       1.0000 0.60527  0.37673  0.15410  Biso   1.000  H
  H2       1.0000 0.35719  0.63003  0.14545  Biso   1.000  H
  B1       1.0000 0.00000  0.00000  0.00000  Biso   1.000  B
  H3       1.0000 0.26288  0.00388  0.92672  Biso   1.000  H
  H4       1.0000 0.86007  0.22365  0.89382  Biso   1.000  H
  H5       1.0000 0.86904  0.77448  0.90797  Biso   1.000  H
  H6       1.0000 0.99530  0.00473  0.29404  Biso   1.000  H
