data_image0
_cell_length_a       9.4
_cell_length_b       9.4
_cell_length_c       9.4
_cell_angle_alpha    90
_cell_angle_beta     90
_cell_angle_gamma    90

_symmetry_space_group_name_H-M    "P 1"
_symmetry_int_tables_number       1

loop_
  _symmetry_equiv_pos_as_xyz
  'x, y, z'

loop_
  _atom_site_label
  _atom_site_occupancy
  _atom_site_fract_x
  _atom_site_fract_y
  _atom_site_fract_z
  _atom_site_thermal_displace_type
  _atom_site_B_iso_or_equiv
  _atom_site_type_symbol
  Na1      1.0000 0.25000  0.25000  0.00000  Biso   1.000  Na
  Na2      1.0000 0.00000  0.25000  0.25000  Biso   1.000  Na
  N1       1.0000 0.25000  0.25000  0.25000  Biso   1.000  N
  H1       1.0000 0.34829  0.25000  0.21525  Biso   1.000  H
  H2       1.0000 0.20085  0.33512  0.21525  Biso   1.000  H
  B1       1.0000 0.00000  0.00000  0.00000  Biso   1.000  B
  H3       1.0000 0.11735  0.00000  0.45851  Biso   1.000  H
  H4       1.0000 0.44133  0.10163  0.45851  Biso   1.000  H
  H5       1.0000 0.44133  0.39837  0.45851  Biso   1.000  H
  H6       1.0000 0.00000  0.00000  0.12447  Biso   1.000  H
  Na3      1.0000 0.25000  0.00000  0.75000  Biso   1.000  Na
  Na4      1.0000 0.00000  0.25000  0.75000  Biso   1.000  Na
  N2       1.0000 0.25000  0.25000  0.75000  Biso   1.000  N
  H7       1.0000 0.34829  0.25000  0.71525  Biso   1.000  H
  H8       1.0000 0.20085  0.33512  0.71525  Biso   1.000  H
  B2       1.0000 0.00000  0.00000  0.50000  Biso   1.000  B
  H9       1.0000 0.11735  0.00000  0.95851  Biso   1.000  H
  H10      1.0000 0.44133  0.10163  0.95851  Biso   1.000  H
  H11      1.0000 0.44133  0.39837  0.95851  Biso   1.000  H
  H12      1.0000 0.00000  0.00000  0.62447  Biso   1.000  H
  Na5      1.0000 0.25000  0.50000  0.25000  Biso   1.000  Na
  Na6      1.0000 0.00000  0.75000  0.25000  Biso   1.000  Na
  N3       1.0000 0.25000  0.75000  0.25000  Biso   1.000  N
  H13      1.0000 0.34829  0.75000  0.21525  Biso   1.000  H
  H14      1.0000 0.20085  0.83512  0.21525  Biso   1.000  H
  B3       1.0000 0.00000  0.50000  0.00000  Biso   1.000  B
  H15      1.0000 0.11735  0.50000  0.45851  Biso   1.000  H
  H16      1.0000 0.44133  0.60163  0.45851  Biso   1.000  H
  H17      1.0000 0.44133  0.89837  0.45851  Biso   1.000  H
  H18      1.0000 0.00000  0.50000  0.12447  Biso   1.000  H
  Na7      1.0000 0.25000  0.50000  0.75000  Biso   1.000  Na
  Na8      1.0000 0.00000  0.75000  0.75000  Biso   1.000  Na
  N4       1.0000 0.25000  0.75000  0.75000  Biso   1.000  N
  H19      1.0000 0.34829  0.75000  0.71525  Biso   1.000  H
  H20      1.0000 0.20085  0.83512  0.71525  Biso   1.000  H
  B4       1.0000 0.00000  0.50000  0.50000  Biso   1.000  B
  H21      1.0000 0.11735  0.50000  0.95851  Biso   1.000  H
  H22      1.0000 0.44133  0.60163  0.95851  Biso   1.000  H
  H23      1.0000 0.44133  0.89837  0.95851  Biso   1.000  H
  H24      1.0000 0.00000  0.50000  0.62447  Biso   1.000  H
  Na9      1.0000 0.75000  0.00000  0.25000  Biso   1.000  Na
  Na10     1.0000 0.50000  0.25000  0.25000  Biso   1.000  Na
  N5       1.0000 0.75000  0.25000  0.25000  Biso   1.000  N
  H25      1.0000 0.84829  0.25000  0.21525  Biso   1.000  H
  H26      1.0000 0.70085  0.33512  0.21525  Biso   1.000  H
  B5       1.0000 0.50000  0.00000  0.00000  Biso   1.000  B
  H27      1.0000 0.61735  0.00000  0.45851  Biso   1.000  H
  H28      1.0000 0.94133  0.10163  0.45851  Biso   1.000  H
  H29      1.0000 0.94133  0.39837  0.45851  Biso   1.000  H
  H30      1.0000 0.50000  0.00000  0.12447  Biso   1.000  H
  Na11     1.0000 0.75000  0.00000  0.75000  Biso   1.000  Na
  Na12     1.0000 0.50000  0.25000  0.75000  Biso   1.000  Na
  N6       1.0000 0.75000  0.25000  0.75000  Biso   1.000  N
  H31      1.0000 0.84829  0.25000  0.71525  Biso   1.000  H
  H32      1.0000 0.70085  0.33512  0.71525  Biso   1.000  H
  B6       1.0000 0.50000  0.00000  0.50000  Biso   1.000  B
  H33      1.0000 0.61735  0.00000  0.95851  Biso   1.000  H
  H34      1.0000 0.94133  0.10163  0.95851  Biso   1.000  H
  H35      1.0000 0.94133  0.39837  0.95851  Biso   1.000  H
  H36      1.0000 0.50000  0.00000  0.62447  Biso   1.000  H
  Na13     1.0000 0.75000  0.50000  0.25000  Biso   1.000  Na
  Na14     1.0000 0.50000  0.75000  0.25000  Biso   1.000  Na
  N7       1.0000 0.75000  0.75000  0.25000  Biso   1.000  N
  H37      1.0000 0.84829  0.75000  0.21525  Biso   1.000  H
  H38      1.0000 0.70085  0.83512  0.21525  Biso   1.000  H
  B7       1.0000 0.50000  0.50000  0.00000  Biso   1.000  B
  H39      1.0000 0.61735  0.50000  0.45851  Biso   1.000  H
  H40      1.0000 0.94133  0.60163  0.45851  Biso   1.000  H
  H41      1.0000 0.94133  0.89837  0.45851  Biso   1.000  H
  H42      1.0000 0.50000  0.50000  0.12447  Biso   1.000  H
  Na15     1.0000 0.75000  0.50000  0.75000  Biso   1.000  Na
  Na16     1.0000 0.50000  0.75000  0.75000  Biso   1.000  Na
  N8       1.0000 0.75000  0.75000  0.75000  Biso   1.000  N
  H43      1.0000 0.84829  0.75000  0.71525  Biso   1.000  H
  H44      1.0000 0.70085  0.83512  0.71525  Biso   1.000  H
  B8       1.0000 0.50000  0.50000  0.50000  Biso   1.000  B
  H45      1.0000 0.61735  0.50000  0.95851  Biso   1.000  H
  H46      1.0000 0.94133  0.60163  0.95851  Biso   1.000  H
  H47      1.0000 0.94133  0.89837  0.95851  Biso   1.000  H
  H48      1.0000 0.50000  0.50000  0.62447  Biso   1.000  H
