data_image0
_cell_length_a       10.854
_cell_length_b       10.854
_cell_length_c       10.854
_cell_angle_alpha    90
_cell_angle_beta     90
_cell_angle_gamma    90

_symmetry_space_group_name_H-M    "P 1"
_symmetry_int_tables_number       1

loop_
  _symmetry_equiv_pos_as_xyz
  'x, y, z'

loop_
  _atom_site_label
  _atom_site_occupancy
  _atom_site_fract_x
  _atom_site_fract_y
  _atom_site_fract_z
  _atom_site_thermal_displace_type
  _atom_site_B_iso_or_equiv
  _atom_site_type_symbol
  Si1      1.0000 0.00000  0.00000  0.00000  Biso   1.000  Si
  Si2      1.0000 0.00000  0.25000  0.25000  Biso   1.000  Si
  Si3      1.0000 0.25000  0.25000  0.00000  Biso   1.000  Si
  Si4      1.0000 0.25000  0.00000  0.25000  Biso   1.000  Si
  Si5      1.0000 0.37500  0.12500  0.37500  Biso   1.000  Si
  Si6      1.0000 0.12500  0.12500  0.12500  Biso   1.000  Si
  Si7      1.0000 0.12500  0.37500  0.37500  Biso   1.000  Si
  Si8      1.0000 0.37500  0.37500  0.12500  Biso   1.000  Si
  Si9      1.0000 0.00000  0.00000  0.50000  Biso   1.000  Si
  Si10     1.0000 0.00000  0.25000  0.75000  Biso   1.000  Si
  Si11     1.0000 0.25000  0.25000  0.50000  Biso   1.000  Si
  Si12     1.0000 0.25000  0.00000  0.75000  Biso   1.000  Si
  Si13     1.0000 0.37500  0.12500  0.87500  Biso   1.000  Si
  Si14     1.0000 0.12500  0.12500  0.62500  Biso   1.000  Si
  Si15     1.0000 0.12500  0.37500  0.87500  Biso   1.000  Si
  Si16     1.0000 0.37500  0.37500  0.62500  Biso   1.000  Si
  Si17     1.0000 0.00000  0.50000  0.00000  Biso   1.000  Si
  Si18     1.0000 0.00000  0.75000  0.25000  Biso   1.000  Si
  Si19     1.0000 0.25000  0.75000  0.00000  Biso   1.000  Si
  Si20     1.0000 0.25000  0.50000  0.25000  Biso   1.000  Si
  Si21     1.0000 0.37500  0.62500  0.37500  Biso   1.000  Si
  Si22     1.0000 0.12500  0.62500  0.12500  Biso   1.000  Si
  Si23     1.0000 0.12500  0.87500  0.37500  Biso   1.000  Si
  Si24     1.0000 0.37500  0.87500  0.12500  Biso   1.000  Si
  Si25     1.0000 0.00000  0.50000  0.50000  Biso   1.000  Si
  Si26     1.0000 0.00000  0.75000  0.75000  Biso   1.000  Si
  Si27     1.0000 0.25000  0.75000  0.50000  Biso   1.000  Si
  Si28     1.0000 0.25000  0.50000  0.75000  Biso   1.000  Si
  Si29     1.0000 0.37500  0.62500  0.87500  Biso   1.000  Si
  Si30     1.0000 0.12500  0.62500  0.62500  Biso   1.000  Si
  Si31     1.0000 0.12500  0.87500  0.87500  Biso   1.000  Si
  Si32     1.0000 0.37500  0.87500  0.62500  Biso   1.000  Si
  Si33     1.0000 0.50000  0.00000  0.00000  Biso   1.000  Si
  Si34     1.0000 0.50000  0.25000  0.25000  Biso   1.000  Si
  Si35     1.0000 0.75000  0.25000  0.00000  Biso   1.000  Si
  Si36     1.0000 0.75000  0.00000  0.25000  Biso   1.000  Si
  Si37     1.0000 0.87500  0.12500  0.37500  Biso   1.000  Si
  Si38     1.0000 0.62500  0.12500  0.12500  Biso   1.000  Si
  Si39     1.0000 0.62500  0.37500  0.37500  Biso   1.000  Si
  Si40     1.0000 0.87500  0.37500  0.12500  Biso   1.000  Si
  Si41     1.0000 0.50000  0.00000  0.50000  Biso   1.000  Si
  Si42     1.0000 0.50000  0.25000  0.75000  Biso   1.000  Si
  Si43     1.0000 0.75000  0.25000  0.50000  Biso   1.000  Si
  Si44     1.0000 0.75000  0.00000  0.75000  Biso   1.000  Si
  Si45     1.0000 0.87500  0.12500  0.87500  Biso   1.000  Si
  Si46     1.0000 0.62500  0.12500  0.62500  Biso   1.000  Si
  Si47     1.0000 0.62500  0.37500  0.87500  Biso   1.000  Si
  Si48     1.0000 0.87500  0.37500  0.62500  Biso   1.000  Si
  Si49     1.0000 0.50000  0.50000  0.00000  Biso   1.000  Si
  Si50     1.0000 0.50000  0.75000  0.25000  Biso   1.000  Si
  Si51     1.0000 0.75000  0.75000  0.00000  Biso   1.000  Si
  Si52     1.0000 0.75000  0.50000  0.25000  Biso   1.000  Si
  Si53     1.0000 0.87500  0.62500  0.37500  Biso   1.000  Si
  Si54     1.0000 0.62500  0.62500  0.12500  Biso   1.000  Si
  Si55     1.0000 0.62500  0.87500  0.37500  Biso   1.000  Si
  Si56     1.0000 0.87500  0.87500  0.12500  Biso   1.000  Si
  Si57     1.0000 0.50000  0.50000  0.50000  Biso   1.000  Si
  Si58     1.0000 0.50000  0.75000  0.75000  Biso   1.000  Si
  Si59     1.0000 0.75000  0.75000  0.50000  Biso   1.000  Si
  Si60     1.0000 0.75000  0.50000  0.75000  Biso   1.000  Si
  Si61     1.0000 0.87500  0.62500  0.87500  Biso   1.000  Si
  Si62     1.0000 0.62500  0.62500  0.62500  Biso   1.000  Si
  Si63     1.0000 0.62500  0.87500  0.87500  Biso   1.000  Si
  Si64     1.0000 0.87500  0.87500  0.62500  Biso   1.000  Si
  Li1      1.0000 0.37500  0.37500  0.37500  Biso   1.000  Li
